<?xml version="1.0" encoding="UTF-8" standalone="yes"?>
<template encoding-version="1.2">
    <description></description>
    <groupId>7c84501d-d10c-407c-b9f3-1d80e38fe36a</groupId>
    <name>full_flow12.11</name>
    <snippet>
        <connections>
            <id>3a5638d7-0ce0-3bf7-0000-000000000000</id>
            <parentGroupId>46f95fe5-3024-31d8-0000-000000000000</parentGroupId>
            <backPressureDataSizeThreshold>1 GB</backPressureDataSizeThreshold>
            <backPressureObjectThreshold>10000</backPressureObjectThreshold>
            <destination>
                <groupId>651022f7-836f-3ab0-0000-000000000000</groupId>
                <id>1251f0f1-69b9-382d-0000-000000000000</id>
                <type>INPUT_PORT</type>
            </destination>
            <flowFileExpiration>0 sec</flowFileExpiration>
            <labelIndex>1</labelIndex>
            <name></name>
            <source>
                <groupId>a26f56f8-9f4d-3084-0000-000000000000</groupId>
                <id>6837de9a-5f44-3c62-0000-000000000000</id>
                <type>OUTPUT_PORT</type>
            </source>
            <zIndex>0</zIndex>
        </connections>
        <connections>
            <id>3b36afaf-b828-3cc0-0000-000000000000</id>
            <parentGroupId>46f95fe5-3024-31d8-0000-000000000000</parentGroupId>
            <backPressureDataSizeThreshold>1 GB</backPressureDataSizeThreshold>
            <backPressureObjectThreshold>10000</backPressureObjectThreshold>
            <destination>
                <groupId>651022f7-836f-3ab0-0000-000000000000</groupId>
                <id>1251f0f1-69b9-382d-0000-000000000000</id>
                <type>INPUT_PORT</type>
            </destination>
            <flowFileExpiration>0 sec</flowFileExpiration>
            <labelIndex>1</labelIndex>
            <name></name>
            <source>
                <groupId>32db03d1-9247-3b5e-0000-000000000000</groupId>
                <id>e495cc90-80c4-3720-0000-000000000000</id>
                <type>OUTPUT_PORT</type>
            </source>
            <zIndex>0</zIndex>
        </connections>
        <controllerServices>
            <id>20c8f381-7305-3ab7-0000-000000000000</id>
            <parentGroupId>46f95fe5-3024-31d8-0000-000000000000</parentGroupId>
            <bundle>
                <artifact>nifi-record-serialization-services-nar</artifact>
                <group>org.apache.nifi</group>
                <version>1.7.0.3.2.0.0-520</version>
            </bundle>
            <comments></comments>
            <descriptors>
                <entry>
                    <key>Schema Write Strategy</key>
                    <value>
                        <name>Schema Write Strategy</name>
                    </value>
                </entry>
                <entry>
                    <key>schema-access-strategy</key>
                    <value>
                        <name>schema-access-strategy</name>
                    </value>
                </entry>
                <entry>
                    <key>schema-registry</key>
                    <value>
                        <identifiesControllerService>org.apache.nifi.schemaregistry.services.SchemaRegistry</identifiesControllerService>
                        <name>schema-registry</name>
                    </value>
                </entry>
                <entry>
                    <key>schema-name</key>
                    <value>
                        <name>schema-name</name>
                    </value>
                </entry>
                <entry>
                    <key>schema-version</key>
                    <value>
                        <name>schema-version</name>
                    </value>
                </entry>
                <entry>
                    <key>schema-branch</key>
                    <value>
                        <name>schema-branch</name>
                    </value>
                </entry>
                <entry>
                    <key>schema-text</key>
                    <value>
                        <name>schema-text</name>
                    </value>
                </entry>
                <entry>
                    <key>compression-format</key>
                    <value>
                        <name>compression-format</name>
                    </value>
                </entry>
            </descriptors>
            <name>AvroRecordSetWriter</name>
            <persistsState>false</persistsState>
            <properties>
                <entry>
                    <key>Schema Write Strategy</key>
                    <value>avro-embedded</value>
                </entry>
                <entry>
                    <key>schema-access-strategy</key>
                    <value>inherit-record-schema</value>
                </entry>
                <entry>
                    <key>schema-registry</key>
                </entry>
                <entry>
                    <key>schema-name</key>
                    <value>${schema.name}</value>
                </entry>
                <entry>
                    <key>schema-version</key>
                </entry>
                <entry>
                    <key>schema-branch</key>
                </entry>
                <entry>
                    <key>schema-text</key>
                    <value>${avro.schema}</value>
                </entry>
                <entry>
                    <key>compression-format</key>
                    <value>NONE</value>
                </entry>
            </properties>
            <state>ENABLED</state>
            <type>org.apache.nifi.avro.AvroRecordSetWriter</type>
        </controllerServices>
        <controllerServices>
            <id>3b5beeeb-1771-3f6a-0000-000000000000</id>
            <parentGroupId>46f95fe5-3024-31d8-0000-000000000000</parentGroupId>
            <bundle>
                <artifact>nifi-dbcp-service-nar</artifact>
                <group>org.apache.nifi</group>
                <version>1.7.0.3.2.0.0-520</version>
            </bundle>
            <comments></comments>
            <descriptors>
                <entry>
                    <key>Database Connection URL</key>
                    <value>
                        <name>Database Connection URL</name>
                    </value>
                </entry>
                <entry>
                    <key>Database Driver Class Name</key>
                    <value>
                        <name>Database Driver Class Name</name>
                    </value>
                </entry>
                <entry>
                    <key>database-driver-locations</key>
                    <value>
                        <name>database-driver-locations</name>
                    </value>
                </entry>
                <entry>
                    <key>Database User</key>
                    <value>
                        <name>Database User</name>
                    </value>
                </entry>
                <entry>
                    <key>Password</key>
                    <value>
                        <name>Password</name>
                    </value>
                </entry>
                <entry>
                    <key>Max Wait Time</key>
                    <value>
                        <name>Max Wait Time</name>
                    </value>
                </entry>
                <entry>
                    <key>Max Total Connections</key>
                    <value>
                        <name>Max Total Connections</name>
                    </value>
                </entry>
                <entry>
                    <key>Validation-query</key>
                    <value>
                        <name>Validation-query</name>
                    </value>
                </entry>
            </descriptors>
            <name>BPM_ILRNAMSQL12</name>
            <persistsState>false</persistsState>
            <properties>
                <entry>
                    <key>Database Connection URL</key>
                    <value>jdbc:sqlserver://ILRNAMSQL12:1433;databaseName=Planon</value>
                </entry>
                <entry>
                    <key>Database Driver Class Name</key>
                    <value>com.microsoft.sqlserver.jdbc.SQLServerDriver</value>
                </entry>
                <entry>
                    <key>database-driver-locations</key>
                    <value>file://${nifi_lib}/sqljdbc41.jar</value>
                </entry>
                <entry>
                    <key>Database User</key>
                    <value>BPM</value>
                </entry>
                <entry>
                    <key>Password</key>
                </entry>
                <entry>
                    <key>Max Wait Time</key>
                    <value>500 millis</value>
                </entry>
                <entry>
                    <key>Max Total Connections</key>
                    <value>8</value>
                </entry>
                <entry>
                    <key>Validation-query</key>
                </entry>
            </properties>
            <state>ENABLED</state>
            <type>org.apache.nifi.dbcp.DBCPConnectionPool</type>
        </controllerServices>
        <controllerServices>
            <id>48d175bf-fd03-3ab3-0000-000000000000</id>
            <parentGroupId>46f95fe5-3024-31d8-0000-000000000000</parentGroupId>
            <bundle>
                <artifact>nifi-dbcp-service-nar</artifact>
                <group>org.apache.nifi</group>
                <version>1.7.0.3.2.0.0-520</version>
            </bundle>
            <comments></comments>
            <descriptors>
                <entry>
                    <key>AM_FOR_ITEX_illinimisac</key>
                    <value>
                        <identifiesControllerService>org.apache.nifi.dbcp.DBCPService</identifiesControllerService>
                        <name>AM_FOR_ITEX_illinimisac</name>
                    </value>
                </entry>
            </descriptors>
            <name>OracleLookup</name>
            <persistsState>false</persistsState>
            <properties>
                <entry>
                    <key>AM_FOR_ITEX_illinimisac</key>
                    <value>878d7807-d1de-3177-0000-000000000000</value>
                </entry>
            </properties>
            <state>ENABLED</state>
            <type>org.apache.nifi.dbcp.DBCPConnectionPoolLookup</type>
        </controllerServices>
        <controllerServices>
            <id>878d7807-d1de-3177-0000-000000000000</id>
            <parentGroupId>46f95fe5-3024-31d8-0000-000000000000</parentGroupId>
            <bundle>
                <artifact>nifi-dbcp-service-nar</artifact>
                <group>org.apache.nifi</group>
                <version>1.7.0.3.2.0.0-520</version>
            </bundle>
            <comments></comments>
            <descriptors>
                <entry>
                    <key>Database Connection URL</key>
                    <value>
                        <name>Database Connection URL</name>
                    </value>
                </entry>
                <entry>
                    <key>Database Driver Class Name</key>
                    <value>
                        <name>Database Driver Class Name</name>
                    </value>
                </entry>
                <entry>
                    <key>database-driver-locations</key>
                    <value>
                        <name>database-driver-locations</name>
                    </value>
                </entry>
                <entry>
                    <key>Database User</key>
                    <value>
                        <name>Database User</name>
                    </value>
                </entry>
                <entry>
                    <key>Password</key>
                    <value>
                        <name>Password</name>
                    </value>
                </entry>
                <entry>
                    <key>Max Wait Time</key>
                    <value>
                        <name>Max Wait Time</name>
                    </value>
                </entry>
                <entry>
                    <key>Max Total Connections</key>
                    <value>
                        <name>Max Total Connections</name>
                    </value>
                </entry>
                <entry>
                    <key>Validation-query</key>
                    <value>
                        <name>Validation-query</name>
                    </value>
                </entry>
            </descriptors>
            <name>AM_FOR_ITEX_illinimisac</name>
            <persistsState>false</persistsState>
            <properties>
                <entry>
                    <key>Database Connection URL</key>
                    <value>jdbc:oracle:thin:@illinimisac:1545:ACPROD</value>
                </entry>
                <entry>
                    <key>Database Driver Class Name</key>
                    <value>oracle.jdbc.driver.OracleDriver</value>
                </entry>
                <entry>
                    <key>database-driver-locations</key>
                    <value>file://${nifi_lib}/ojdbc7-12.1.0.2.jar</value>
                </entry>
                <entry>
                    <key>Database User</key>
                    <value>AM_FOR_ITEX</value>
                </entry>
                <entry>
                    <key>Password</key>
                </entry>
                <entry>
                    <key>Max Wait Time</key>
                    <value>500 millis</value>
                </entry>
                <entry>
                    <key>Max Total Connections</key>
                    <value>8</value>
                </entry>
                <entry>
                    <key>Validation-query</key>
                </entry>
            </properties>
            <state>ENABLED</state>
            <type>org.apache.nifi.dbcp.DBCPConnectionPool</type>
        </controllerServices>
        <controllerServices>
            <id>98a093ec-764f-3aad-0000-000000000000</id>
            <parentGroupId>46f95fe5-3024-31d8-0000-000000000000</parentGroupId>
            <bundle>
                <artifact>nifi-dbcp-service-nar</artifact>
                <group>org.apache.nifi</group>
                <version>1.7.0.3.2.0.0-520</version>
            </bundle>
            <comments></comments>
            <descriptors>
                <entry>
                    <key>BPM_ILRNAMSQL12</key>
                    <value>
                        <identifiesControllerService>org.apache.nifi.dbcp.DBCPService</identifiesControllerService>
                        <name>BPM_ILRNAMSQL12</name>
                    </value>
                </entry>
            </descriptors>
            <name>SqlServerLookup</name>
            <persistsState>false</persistsState>
            <properties>
                <entry>
                    <key>BPM_ILRNAMSQL12</key>
                    <value>3b5beeeb-1771-3f6a-0000-000000000000</value>
                </entry>
            </properties>
            <state>ENABLED</state>
            <type>org.apache.nifi.dbcp.DBCPConnectionPoolLookup</type>
        </controllerServices>
        <controllerServices>
            <id>a33a343d-d6b6-3054-0000-000000000000</id>
            <parentGroupId>46f95fe5-3024-31d8-0000-000000000000</parentGroupId>
            <bundle>
                <artifact>nifi-record-serialization-services-nar</artifact>
                <group>org.apache.nifi</group>
                <version>1.7.0.3.2.0.0-520</version>
            </bundle>
            <comments></comments>
            <descriptors>
                <entry>
                    <key>schema-access-strategy</key>
                    <value>
                        <name>schema-access-strategy</name>
                    </value>
                </entry>
                <entry>
                    <key>schema-registry</key>
                    <value>
                        <identifiesControllerService>org.apache.nifi.schemaregistry.services.SchemaRegistry</identifiesControllerService>
                        <name>schema-registry</name>
                    </value>
                </entry>
                <entry>
                    <key>schema-name</key>
                    <value>
                        <name>schema-name</name>
                    </value>
                </entry>
                <entry>
                    <key>schema-version</key>
                    <value>
                        <name>schema-version</name>
                    </value>
                </entry>
                <entry>
                    <key>schema-branch</key>
                    <value>
                        <name>schema-branch</name>
                    </value>
                </entry>
                <entry>
                    <key>schema-text</key>
                    <value>
                        <name>schema-text</name>
                    </value>
                </entry>
            </descriptors>
            <name>AvroReader</name>
            <persistsState>false</persistsState>
            <properties>
                <entry>
                    <key>schema-access-strategy</key>
                    <value>embedded-avro-schema</value>
                </entry>
                <entry>
                    <key>schema-registry</key>
                </entry>
                <entry>
                    <key>schema-name</key>
                    <value>${schema.name}</value>
                </entry>
                <entry>
                    <key>schema-version</key>
                </entry>
                <entry>
                    <key>schema-branch</key>
                </entry>
                <entry>
                    <key>schema-text</key>
                    <value>${avro.schema}</value>
                </entry>
            </properties>
            <state>ENABLED</state>
            <type>org.apache.nifi.avro.AvroReader</type>
        </controllerServices>
        <controllerServices>
            <id>ab0dd268-2a22-3336-0000-000000000000</id>
            <parentGroupId>46f95fe5-3024-31d8-0000-000000000000</parentGroupId>
            <bundle>
                <artifact>nifi-kerberos-credentials-service-nar</artifact>
                <group>org.apache.nifi</group>
                <version>1.7.0.3.2.0.0-520</version>
            </bundle>
            <comments></comments>
            <descriptors>
                <entry>
                    <key>Kerberos Keytab</key>
                    <value>
                        <name>Kerberos Keytab</name>
                    </value>
                </entry>
                <entry>
                    <key>Kerberos Principal</key>
                    <value>
                        <name>Kerberos Principal</name>
                    </value>
                </entry>
            </descriptors>
            <name>KeytabCredentialsService</name>
            <persistsState>false</persistsState>
            <properties>
                <entry>
                    <key>Kerberos Keytab</key>
                    <value>/etc/security/keytabs/nifi.service.keytab</value>
                </entry>
                <entry>
                    <key>Kerberos Principal</key>
                    <value>nifi/${hostname()}@CORP.AMDOCS.COM</value>
                </entry>
            </properties>
            <state>ENABLED</state>
            <type>org.apache.nifi.kerberos.KeytabCredentialsService</type>
        </controllerServices>
        <controllerServices>
            <id>bb0097a4-a514-3600-0000-000000000000</id>
            <parentGroupId>46f95fe5-3024-31d8-0000-000000000000</parentGroupId>
            <bundle>
                <artifact>nifi-hive-nar</artifact>
                <group>org.apache.nifi</group>
                <version>1.7.0.3.2.0.0-520</version>
            </bundle>
            <comments></comments>
            <descriptors>
                <entry>
                    <key>hive-db-connect-url</key>
                    <value>
                        <name>hive-db-connect-url</name>
                    </value>
                </entry>
                <entry>
                    <key>hive-config-resources</key>
                    <value>
                        <name>hive-config-resources</name>
                    </value>
                </entry>
                <entry>
                    <key>hive-db-user</key>
                    <value>
                        <name>hive-db-user</name>
                    </value>
                </entry>
                <entry>
                    <key>hive-db-password</key>
                    <value>
                        <name>hive-db-password</name>
                    </value>
                </entry>
                <entry>
                    <key>hive-max-wait-time</key>
                    <value>
                        <name>hive-max-wait-time</name>
                    </value>
                </entry>
                <entry>
                    <key>hive-max-total-connections</key>
                    <value>
                        <name>hive-max-total-connections</name>
                    </value>
                </entry>
                <entry>
                    <key>Validation-query</key>
                    <value>
                        <name>Validation-query</name>
                    </value>
                </entry>
                <entry>
                    <key>kerberos-credentials-service</key>
                    <value>
                        <identifiesControllerService>org.apache.nifi.kerberos.KerberosCredentialsService</identifiesControllerService>
                        <name>kerberos-credentials-service</name>
                    </value>
                </entry>
                <entry>
                    <key>Kerberos Principal</key>
                    <value>
                        <name>Kerberos Principal</name>
                    </value>
                </entry>
                <entry>
                    <key>Kerberos Keytab</key>
                    <value>
                        <name>Kerberos Keytab</name>
                    </value>
                </entry>
            </descriptors>
            <name>HiveConnectionPool</name>
            <persistsState>false</persistsState>
            <properties>
                <entry>
                    <key>hive-db-connect-url</key>
                    <value>jdbc:hive2://illinambhdpdev01.corp.amdocs.com:2181,illinhdpmdev01.corp.amdocs.com:2181,illinhdpmdev02.corp.amdocs.com:2181/default;principal=hive/illinhdpmdev02@CORP.AMDOCS.COM;serviceDiscoveryMode=zooKeeper;zooKeeperNamespace=hiveserver2</value>
                </entry>
                <entry>
                    <key>hive-config-resources</key>
                    <value>${hadoop_site}</value>
                </entry>
                <entry>
                    <key>hive-db-user</key>
                    <value>ozl</value>
                </entry>
                <entry>
                    <key>hive-db-password</key>
                </entry>
                <entry>
                    <key>hive-max-wait-time</key>
                    <value>500 millis</value>
                </entry>
                <entry>
                    <key>hive-max-total-connections</key>
                    <value>8</value>
                </entry>
                <entry>
                    <key>Validation-query</key>
                </entry>
                <entry>
                    <key>kerberos-credentials-service</key>
                </entry>
                <entry>
                    <key>Kerberos Principal</key>
                </entry>
                <entry>
                    <key>Kerberos Keytab</key>
                </entry>
            </properties>
            <state>DISABLED</state>
            <type>org.apache.nifi.dbcp.hive.HiveConnectionPool</type>
        </controllerServices>
        <processGroups>
            <id>32db03d1-9247-3b5e-0000-000000000000</id>
            <parentGroupId>46f95fe5-3024-31d8-0000-000000000000</parentGroupId>
            <position>
                <x>572.0</x>
                <y>7.0</y>
            </position>
            <comments></comments>
            <contents>
                <connections>
                    <id>083d9036-1d20-35b4-0000-000000000000</id>
                    <parentGroupId>32db03d1-9247-3b5e-0000-000000000000</parentGroupId>
                    <backPressureDataSizeThreshold>1 GB</backPressureDataSizeThreshold>
                    <backPressureObjectThreshold>10000</backPressureObjectThreshold>
                    <destination>
                        <groupId>a8048ba0-9141-3e2f-0000-000000000000</groupId>
                        <id>64d90e98-2349-31e5-0000-000000000000</id>
                        <type>INPUT_PORT</type>
                    </destination>
                    <flowFileExpiration>0 sec</flowFileExpiration>
                    <labelIndex>1</labelIndex>
                    <name></name>
                    <selectedRelationships>success</selectedRelationships>
                    <source>
                        <groupId>32db03d1-9247-3b5e-0000-000000000000</groupId>
                        <id>8096a886-0d6a-347a-0000-000000000000</id>
                        <type>PROCESSOR</type>
                    </source>
                    <zIndex>0</zIndex>
                </connections>
                <connections>
                    <id>0f90bd71-6c10-3ffa-0000-000000000000</id>
                    <parentGroupId>32db03d1-9247-3b5e-0000-000000000000</parentGroupId>
                    <backPressureDataSizeThreshold>1 GB</backPressureDataSizeThreshold>
                    <backPressureObjectThreshold>10000</backPressureObjectThreshold>
                    <destination>
                        <groupId>32db03d1-9247-3b5e-0000-000000000000</groupId>
                        <id>ed459ddd-f618-348c-0000-000000000000</id>
                        <type>PROCESSOR</type>
                    </destination>
                    <flowFileExpiration>0 sec</flowFileExpiration>
                    <labelIndex>1</labelIndex>
                    <name></name>
                    <source>
                        <groupId>ec1ef109-a3af-34df-0000-000000000000</groupId>
                        <id>8eb9246f-de83-3e1c-0000-000000000000</id>
                        <type>OUTPUT_PORT</type>
                    </source>
                    <zIndex>0</zIndex>
                </connections>
                <connections>
                    <id>2b03551e-ea2c-3e5d-0000-000000000000</id>
                    <parentGroupId>32db03d1-9247-3b5e-0000-000000000000</parentGroupId>
                    <backPressureDataSizeThreshold>1 GB</backPressureDataSizeThreshold>
                    <backPressureObjectThreshold>10000</backPressureObjectThreshold>
                    <destination>
                        <groupId>402ecd4f-0cc2-3f97-0000-000000000000</groupId>
                        <id>6d713da1-e6e6-32f7-0000-000000000000</id>
                        <type>INPUT_PORT</type>
                    </destination>
                    <flowFileExpiration>0 sec</flowFileExpiration>
                    <labelIndex>1</labelIndex>
                    <name></name>
                    <source>
                        <groupId>a8048ba0-9141-3e2f-0000-000000000000</groupId>
                        <id>fc568dd1-0aea-3fc7-0000-000000000000</id>
                        <type>OUTPUT_PORT</type>
                    </source>
                    <zIndex>0</zIndex>
                </connections>
                <connections>
                    <id>80c076d2-cb92-3ed9-0000-000000000000</id>
                    <parentGroupId>32db03d1-9247-3b5e-0000-000000000000</parentGroupId>
                    <backPressureDataSizeThreshold>1 GB</backPressureDataSizeThreshold>
                    <backPressureObjectThreshold>10000</backPressureObjectThreshold>
                    <destination>
                        <groupId>ec1ef109-a3af-34df-0000-000000000000</groupId>
                        <id>1640b8d0-e4b9-3866-0000-000000000000</id>
                        <type>INPUT_PORT</type>
                    </destination>
                    <flowFileExpiration>0 sec</flowFileExpiration>
                    <labelIndex>1</labelIndex>
                    <name></name>
                    <source>
                        <groupId>0221cb63-31ce-3bde-0000-000000000000</groupId>
                        <id>a1dbe676-ce63-3e1f-0000-000000000000</id>
                        <type>OUTPUT_PORT</type>
                    </source>
                    <zIndex>0</zIndex>
                </connections>
                <connections>
                    <id>ad83349f-c89e-3262-0000-000000000000</id>
                    <parentGroupId>32db03d1-9247-3b5e-0000-000000000000</parentGroupId>
                    <backPressureDataSizeThreshold>1 GB</backPressureDataSizeThreshold>
                    <backPressureObjectThreshold>10000</backPressureObjectThreshold>
                    <destination>
                        <groupId>32db03d1-9247-3b5e-0000-000000000000</groupId>
                        <id>e495cc90-80c4-3720-0000-000000000000</id>
                        <type>OUTPUT_PORT</type>
                    </destination>
                    <flowFileExpiration>0 sec</flowFileExpiration>
                    <labelIndex>1</labelIndex>
                    <name></name>
                    <source>
                        <groupId>ec1ef109-a3af-34df-0000-000000000000</groupId>
                        <id>81873aef-4540-3078-0000-000000000000</id>
                        <type>OUTPUT_PORT</type>
                    </source>
                    <zIndex>0</zIndex>
                </connections>