<?xml version="1.0" encoding="UTF-8" standalone="yes"?>
<template encoding-version="1.2">
    <description></description>
    <groupId>7c84501d-d10c-407c-b9f3-1d80e38fe36a</groupId>
    <name>full_flow11.05</name>
    <snippet>
        <connections>
            <id>95458a51-9e2c-31be-0000-000000000000</id>
            <parentGroupId>46f95fe5-3024-31d8-0000-000000000000</parentGroupId>
            <backPressureDataSizeThreshold>1 GB</backPressureDataSizeThreshold>
            <backPressureObjectThreshold>10000</backPressureObjectThreshold>
            <destination>
                <groupId>84873335-3f5f-3967-0000-000000000000</groupId>
                <id>c0c34079-9713-312e-0000-000000000000</id>
                <type>INPUT_PORT</type>
            </destination>
            <flowFileExpiration>0 sec</flowFileExpiration>
            <labelIndex>1</labelIndex>
            <name></name>
            <source>
                <groupId>db8a3cd1-e14a-34d0-0000-000000000000</groupId>
                <id>e8b93bb8-ab43-38a8-0000-000000000000</id>
                <type>OUTPUT_PORT</type>
            </source>
            <zIndex>0</zIndex>
        </connections>
        <connections>
            <id>a3e54d4a-3c3c-3b33-0000-000000000000</id>
            <parentGroupId>46f95fe5-3024-31d8-0000-000000000000</parentGroupId>
            <backPressureDataSizeThreshold>1 GB</backPressureDataSizeThreshold>
            <backPressureObjectThreshold>10000</backPressureObjectThreshold>
            <destination>
                <groupId>84873335-3f5f-3967-0000-000000000000</groupId>
                <id>c0c34079-9713-312e-0000-000000000000</id>
                <type>INPUT_PORT</type>
            </destination>
            <flowFileExpiration>0 sec</flowFileExpiration>
            <labelIndex>1</labelIndex>
            <name></name>
            <source>
                <groupId>62f85da9-e197-3abd-0000-000000000000</groupId>
                <id>0fc91b23-cd47-3d02-0000-000000000000</id>
                <type>OUTPUT_PORT</type>
            </source>
            <zIndex>0</zIndex>
        </connections>
        <controllerServices>
            <id>6d43fe1e-976e-35a4-0000-000000000000</id>
            <parentGroupId>46f95fe5-3024-31d8-0000-000000000000</parentGroupId>
            <bundle>
                <artifact>nifi-dbcp-service-nar</artifact>
                <group>org.apache.nifi</group>
                <version>1.7.0.3.2.0.0-520</version>
            </bundle>
            <comments></comments>
            <descriptors>
                <entry>
                    <key>Database Connection URL</key>
                    <value>
                        <name>Database Connection URL</name>
                    </value>
                </entry>
                <entry>
                    <key>Database Driver Class Name</key>
                    <value>
                        <name>Database Driver Class Name</name>
                    </value>
                </entry>
                <entry>
                    <key>database-driver-locations</key>
                    <value>
                        <name>database-driver-locations</name>
                    </value>
                </entry>
                <entry>
                    <key>Database User</key>
                    <value>
                        <name>Database User</name>
                    </value>
                </entry>
                <entry>
                    <key>Password</key>
                    <value>
                        <name>Password</name>
                    </value>
                </entry>
                <entry>
                    <key>Max Wait Time</key>
                    <value>
                        <name>Max Wait Time</name>
                    </value>
                </entry>
                <entry>
                    <key>Max Total Connections</key>
                    <value>
                        <name>Max Total Connections</name>
                    </value>
                </entry>
                <entry>
                    <key>Validation-query</key>
                    <value>
                        <name>Validation-query</name>
                    </value>
                </entry>
            </descriptors>
            <name>SqlServerCP</name>
            <persistsState>false</persistsState>
            <properties>
                <entry>
                    <key>Database Connection URL</key>
                    <value>jdbc:sqlserver://ILRNAMSQL12:1433;databaseName=Planon</value>
                </entry>
                <entry>
                    <key>Database Driver Class Name</key>
                    <value>com.microsoft.sqlserver.jdbc.SQLServerDriver</value>
                </entry>
                <entry>
                    <key>database-driver-locations</key>
                    <value>file:///usr/hdf/3.2.0.0-520/nifi/lib/sqljdbc41.jar</value>
                </entry>
                <entry>
                    <key>Database User</key>
                    <value>BPM</value>
                </entry>
                <entry>
                    <key>Password</key>
                </entry>
                <entry>
                    <key>Max Wait Time</key>
                    <value>500 millis</value>
                </entry>
                <entry>
                    <key>Max Total Connections</key>
                    <value>8</value>
                </entry>
                <entry>
                    <key>Validation-query</key>
                </entry>
            </properties>
            <state>ENABLED</state>
            <type>org.apache.nifi.dbcp.DBCPConnectionPool</type>
        </controllerServices>
        <controllerServices>
            <id>9fd7f0b6-28c7-3350-0000-000000000000</id>
            <parentGroupId>46f95fe5-3024-31d8-0000-000000000000</parentGroupId>
            <bundle>
                <artifact>nifi-dbcp-service-nar</artifact>
                <group>org.apache.nifi</group>
                <version>1.7.0.3.2.0.0-520</version>
            </bundle>
            <comments></comments>
            <descriptors>
                <entry>
                    <key>Database Connection URL</key>
                    <value>
                        <name>Database Connection URL</name>
                    </value>
                </entry>
                <entry>
                    <key>Database Driver Class Name</key>
                    <value>
                        <name>Database Driver Class Name</name>
                    </value>
                </entry>
                <entry>
                    <key>database-driver-locations</key>
                    <value>
                        <name>database-driver-locations</name>
                    </value>
                </entry>
                <entry>
                    <key>Database User</key>
                    <value>
                        <name>Database User</name>
                    </value>
                </entry>
                <entry>
                    <key>Password</key>
                    <value>
                        <name>Password</name>
                    </value>
                </entry>
                <entry>
                    <key>Max Wait Time</key>
                    <value>
                        <name>Max Wait Time</name>
                    </value>
                </entry>
                <entry>
                    <key>Max Total Connections</key>
                    <value>
                        <name>Max Total Connections</name>
                    </value>
                </entry>
                <entry>
                    <key>Validation-query</key>
                    <value>
                        <name>Validation-query</name>
                    </value>
                </entry>
            </descriptors>
            <name>OracleCP</name>
            <persistsState>false</persistsState>
            <properties>
                <entry>
                    <key>Database Connection URL</key>
                    <value>jdbc:oracle:thin:@illinimisac:1545:ACPROD</value>
                </entry>
                <entry>
                    <key>Database Driver Class Name</key>
                    <value>oracle.jdbc.driver.OracleDriver</value>
                </entry>
                <entry>
                    <key>database-driver-locations</key>
                    <value>file:///usr/hdf/3.2.0.0-520/nifi/lib/ojdbc7-12.1.0.2.jar</value>
                </entry>
                <entry>
                    <key>Database User</key>
                    <value>AM_FOR_ITEX</value>
                </entry>
                <entry>
                    <key>Password</key>
                </entry>
                <entry>
                    <key>Max Wait Time</key>
                    <value>500 millis</value>
                </entry>
                <entry>
                    <key>Max Total Connections</key>
                    <value>8</value>
                </entry>
                <entry>
                    <key>Validation-query</key>
                </entry>
            </properties>
            <state>ENABLED</state>
            <type>org.apache.nifi.dbcp.DBCPConnectionPool</type>
        </controllerServices>
        <processGroups>
            <id>04feaee4-0f9b-39ba-0000-000000000000</id>
            <parentGroupId>46f95fe5-3024-31d8-0000-000000000000</parentGroupId>
            <position>
                <x>1826.1866399353776</x>
                <y>21.763646269095034</y>
            </position>
            <comments></comments>
            <contents>
                <connections>
                    <id>7fdabed3-23bf-369e-0000-000000000000</id>
                    <parentGroupId>04feaee4-0f9b-39ba-0000-000000000000</parentGroupId>
                    <backPressureDataSizeThreshold>1 GB</backPressureDataSizeThreshold>
                    <backPressureObjectThreshold>10000</backPressureObjectThreshold>
                    <destination>
                        <groupId>04feaee4-0f9b-39ba-0000-000000000000</groupId>
                        <id>8fb64522-e5cd-32e6-0000-000000000000</id>
                        <type>PROCESSOR</type>
                    </destination>
                    <flowFileExpiration>0 sec</flowFileExpiration>
                    <labelIndex>1</labelIndex>
                    <name></name>
                    <selectedRelationships>success</selectedRelationships>
                    <source>
                        <groupId>04feaee4-0f9b-39ba-0000-000000000000</groupId>
                        <id>ea81771d-40ce-3981-0000-000000000000</id>
                        <type>PROCESSOR</type>
                    </source>
                    <zIndex>0</zIndex>
                </connections>
                <connections>
                    <id>c80272ee-d6cf-368f-0000-000000000000</id>
                    <parentGroupId>04feaee4-0f9b-39ba-0000-000000000000</parentGroupId>
                    <backPressureDataSizeThreshold>1 GB</backPressureDataSizeThreshold>
                    <backPressureObjectThreshold>10000</backPressureObjectThreshold>
                    <destination>
                        <groupId>04feaee4-0f9b-39ba-0000-000000000000</groupId>
                        <id>d1e3c798-8e1b-3c4e-0000-000000000000</id>
                        <type>PROCESSOR</type>
                    </destination>
                    <flowFileExpiration>0 sec</flowFileExpiration>
                    <labelIndex>1</labelIndex>
                    <name></name>
                    <selectedRelationships>success</selectedRelationships>
                    <source>
                        <groupId>04feaee4-0f9b-39ba-0000-000000000000</groupId>
                        <id>efdf7694-067d-3512-0000-000000000000</id>
                        <type>PROCESSOR</type>
                    </source>
                    <zIndex>0</zIndex>
                </connections>
                <connections>
                    <id>cf5b1ee2-ce8f-3886-0000-000000000000</id>
                    <parentGroupId>04feaee4-0f9b-39ba-0000-000000000000</parentGroupId>
                    <backPressureDataSizeThreshold>1 GB</backPressureDataSizeThreshold>
                    <backPressureObjectThreshold>10000</backPressureObjectThreshold>
                    <destination>
                        <groupId>04feaee4-0f9b-39ba-0000-000000000000</groupId>
                        <id>a41cd012-b557-3139-0000-000000000000</id>
                        <type>PROCESSOR</type>
                    </destination>
                    <flowFileExpiration>0 sec</flowFileExpiration>
                    <labelIndex>1</labelIndex>
                    <name></name>
                    <selectedRelationships>success</selectedRelationships>
                    <source>
                        <groupId>04feaee4-0f9b-39ba-0000-000000000000</groupId>
                        <id>8fb64522-e5cd-32e6-0000-000000000000</id>
                        <type>PROCESSOR</type>
                    </source>
                    <zIndex>0</zIndex>
                </connections>
                <processors>
                    <id>22fd2096-7f90-3289-0000-000000000000</id>
                    <parentGroupId>04feaee4-0f9b-39ba-0000-000000000000</parentGroupId>
                    <position>
                        <x>1437.0</x>
                        <y>30.0</y>
                    </position>
                    <bundle>
                        <artifact>nifi-hadoop-nar</artifact>
                        <group>org.apache.nifi</group>
                        <version>1.7.0.3.2.0.0-520</version>
                    </bundle>
                    <config>
                        <bulletinLevel>WARN</bulletinLevel>
                        <comments></comments>
                        <concurrentlySchedulableTaskCount>1</concurrentlySchedulableTaskCount>
                        <descriptors>
                            <entry>
<key>Hadoop Configuration Resources</key>
<value>
    <name>Hadoop Configuration Resources</name>
</value>
                            </entry>
                            <entry>
<key>kerberos-credentials-service</key>
<value>
    <identifiesControllerService>org.apache.nifi.kerberos.KerberosCredentialsService</identifiesControllerService>
    <name>kerberos-credentials-service</name>
</value>
                            </entry>
                            <entry>
<key>Kerberos Principal</key>
<value>
    <name>Kerberos Principal</name>
</value>
                            </entry>
                            <entry>
<key>Kerberos Keytab</key>
<value>
    <name>Kerberos Keytab</name>
</value>
                            </entry>
                            <entry>
<key>Kerberos Relogin Period</key>
<value>
    <name>Kerberos Relogin Period</name>
</value>
                            </entry>
                            <entry>
<key>Additional Classpath Resources</key>
<value>
    <name>Additional Classpath Resources</name>
</value>
                            </entry>
                            <entry>
<key>file_or_directory</key>
<value>
    <name>file_or_directory</name>
</value>
                            </entry>
                            <entry>
<key>recursive</key>
<value>
    <name>recursive</name>
</value>
                            </entry>
                        </descriptors>
                        <executionNode>ALL</executionNode>
                        <lossTolerant>false</lossTolerant>
                        <penaltyDuration>30 sec</penaltyDuration>
                        <properties>
                            <entry>
<key>Hadoop Configuration Resources</key>
<value>/etc/nifi/hdfs-site.xml,/etc/nifi/core-site.xml</value>
                            </entry>
                            <entry>
<key>kerberos-credentials-service</key>
                            </entry>
                            <entry>
<key>Kerberos Principal</key>
                            </entry>
                            <entry>
<key>Kerberos Keytab</key>
                            </entry>
                            <entry>
<key>Kerberos Relogin Period</key>
<value>4 hours</value>
                            </entry>
                            <entry>
<key>Additional Classpath Resources</key>
                            </entry>
                            <entry>
<key>file_or_directory</key>
<value>/RetentionZone/${now():toNumber():minus(604800000):format("dd_MM_yyyy","Asia/Jerusalem")}</value>
                            </entry>
                            <entry>
<key>recursive</key>
<value>true</value>
                            </entry>
                        </properties>
                        <runDurationMillis>0</runDurationMillis>
                        <schedulingPeriod>0 05 0 * * ?</schedulingPeriod>
                        <schedulingStrategy>CRON_DRIVEN</schedulingStrategy>
                        <yieldDuration>1 sec</yieldDuration>
                    </config>
                    <executionNodeRestricted>false</executionNodeRestricted>
                    <name>DeleteOldArchives</name>
                    <relationships>
                        <autoTerminate>true</autoTerminate>
                        <name>failure</name>
                    </relationships>
                    <relationships>
                        <autoTerminate>true</autoTerminate>
                        <name>success</name>
                    </relationships>
                    <state>STOPPED</state>
                    <style/>
                    <type>org.apache.nifi.processors.hadoop.DeleteHDFS</type>
                </processors>
                <processors>
                    <id>8fb64522-e5cd-32e6-0000-000000000000</id>
                    <parentGroupId>04feaee4-0f9b-39ba-0000-000000000000</parentGroupId>
                    <position>
                        <x>963.0000141433577</x>
                        <y>225.0000016921474</y>
                    </position>
                    <bundle>
                        <artifact>nifi-standard-nar</artifact>
                        <group>org.apache.nifi</group>
                        <version>1.7.0.3.2.0.0-520</version>
                    </bundle>
                    <config>
                        <bulletinLevel>WARN</bulletinLevel>
                        <comments></comments>
                        <concurrentlySchedulableTaskCount>1</concurrentlySchedulableTaskCount>
                        <descriptors>
                            <entry>
<key>Hostname</key>
<value>
    <name>Hostname</name>
</value>
                            </entry>
                            <entry>
<key>Port</key>
<value>
    <name>Port</name>
</value>
                            </entry>
                            <entry>
<key>Username</key>
<value>
    <name>Username</name>
</value>
                            </entry>
                            <entry>
<key>Password</key>
<value>
    <name>Password</name>
</value>
                            </entry>
                            <entry>
<key>Private Key Path</key>
<value>
    <name>Private Key Path</name>
</value>
                            </entry>
                            <entry>
<key>Private Key Passphrase</key>
<value>
    <name>Private Key Passphrase</name>
</value>
                            </entry>
                            <entry>
<key>Remote File</key>
<value>
    <name>Remote File</name>
</value>
                            </entry>
                            <entry>
<key>Completion Strategy</key>
<value>
    <name>Completion Strategy</name>
</value>
                            </entry>
                            <entry>
<key>Move Destination Directory</key>
<value>
    <name>Move Destination Directory</name>
</value>
                            </entry>
                            <entry>
<key>Create Directory</key>
<value>
    <name>Create Directory</name>
</value>
                            </entry>
                            <entry>
<key>Disable Directory Listing</key>
<value>
    <name>Disable Directory Listing</name>
</value>
                            </entry>
                            <entry>
<key>Connection Timeout</key>
<value>
    <name>Connection Timeout</name>
</value>
                            </entry>
                            <entry>
<key>Data Timeout</key>
<value>
    <name>Data Timeout</name>
</value>
                            </entry>
                            <entry>
<key>Send Keep Alive On Timeout</key>
<value>
    <name>Send Keep Alive On Timeout</name>
</value>
                            </entry>
                            <entry>
<key>Host Key File</key>
<value>
    <name>Host Key File</name>
</value>
                            </entry>
                            <entry>
<key>Strict Host Key Checking</key>
<value>
    <name>Strict Host Key Checking</name>
</value>
                            </entry>
                            <entry>
<key>Use Compression</key>
<value>
    <name>Use Compression</name>
</value>
                            </entry>
                            <entry>
<key>proxy-configuration-service</key>
<value>
    <identifiesControllerService>org.apache.nifi.proxy.ProxyConfigurationService</identifiesControllerService>
    <name>proxy-configuration-service</name>
</value>
                            </entry>
                            <entry>
<key>Proxy Type</key>
<value>
    <name>Proxy Type</name>
</value>
                            </entry>
                            <entry>
<key>Proxy Host</key>
<value>
    <name>Proxy Host</name>
</value>
                            </entry>
                            <entry>
<key>Proxy Port</key>
<value>
    <name>Proxy Port</name>
</value>
                            </entry>
                            <entry>
<key>Http Proxy Username</key>
<value>
    <name>Http Proxy Username</name>
</value>
                            </entry>
                            <entry>
<key>Http Proxy Password</key>
<value>
    <name>Http Proxy Password</name>
</value>
                            </entry>
                        </descriptors>
                        <executionNode>ALL</executionNode>
                        <lossTolerant>false</lossTolerant>
                        <penaltyDuration>30 sec</penaltyDuration>
                        <properties>
                            <entry>
<key>Hostname</key>
<value>illincdpsl01</value>
                            </entry>
                            <entry>
<key>Port</key>
<value>22</value>
                            </entry>
                            <entry>
<key>Username</key>
<value>root</value>
                            </entry>
                            <entry>
<key>Password</key>
                            </entry>
                            <entry>
<key>Private Key Path</key>
                            </entry>
                            <entry>
<key>Private Key Passphrase</key>
                            </entry>
                            <entry>
<key>Remote File</key>
<value>/zipTemp/tables.zip</value>
                            </entry>
                            <entry>
<key>Completion Strategy</key>
<value>Delete File</value>
                            </entry>
                            <entry>
<key>Move Destination Directory</key>
                            </entry>
                            <entry>
<key>Create Directory</key>
<value>false</value>
                            </entry>
                            <entry>
<key>Disable Directory Listing</key>
<value>false</value>
                            </entry>
                            <entry>
<key>Connection Timeout</key>
<value>30 sec</value>
                            </entry>
                            <entry>
<key>Data Timeout</key>
<value>30 sec</value>
                            </entry>
                            <entry>
<key>Send Keep Alive On Timeout</key>
<value>true</value>
                            </entry>
                            <entry>
<key>Host Key File</key>
                            </entry>
                            <entry>
<key>Strict Host Key Checking</key>
<value>false</value>
                            </entry>
                            <entry>
<key>Use Compression</key>
<value>false</value>
                            </entry>
                            <entry>
<key>proxy-configuration-service</key>
                            </entry>
                            <entry>
<key>Proxy Type</key>
<value>DIRECT</value>
                            </entry>
                            <entry>
<key>Proxy Host</key>
                            </entry>
                            <entry>
<key>Proxy Port</key>
                            </entry>
                            <entry>
<key>Http Proxy Username</key>
                            </entry>
                            <entry>
<key>Http Proxy Password</key>
                            </entry>
                        </properties>
                        <runDurationMillis>0</runDurationMillis>
                        <schedulingPeriod>0 sec</schedulingPeriod>
                        <schedulingStrategy>TIMER_DRIVEN</schedulingStrategy>
                        <yieldDuration>1 sec</yieldDuration>
                    </config>
                    <executionNodeRestricted>false</executionNodeRestricted>
                    <name>GetZippedFiles</name>
                    <relationships>
                        <autoTerminate>true</autoTerminate>
                        <name>comms.failure</name>
                    </relationships>
                    <relationships>
                        <autoTerminate>true</autoTerminate>
                        <name>not.found</name>
                    </relationships>
                    <relationships>
                        <autoTerminate>true</autoTerminate>
                        <name>permission.denied</name>
                    </relationships>
                    <relationships>
                        <autoTerminate>false</autoTerminate>
                        <name>success</name>
                    </relationships>
                    <state>STOPPED</state>
                    <style/>
                    <type>org.apache.nifi.processors.standard.FetchSFTP</type>
                </processors>
                <processors>
                    <id>a41cd012-b557-3139-0000-000000000000</id>
                    <parentGroupId>04feaee4-0f9b-39ba-0000-000000000000</parentGroupId>
                    <position>
                        <x>958.0000141433577</x>
                        <y>437.0000016921474</y>
                    </position>
                    <bundle>
                        <artifact>nifi-hadoop-nar</artifact>
                        <group>org.apache.nifi</group>
                        <version>1.7.0.3.2.0.0-520</version>
                    </bundle>
                    <config>
                        <bulletinLevel>WARN</bulletinLevel>
                        <comments></comments>
                        <concurrentlySchedulableTaskCount>1</concurrentlySchedulableTaskCount>
                        <descriptors>
                            <entry>
<key>Hadoop Configuration Resources</key>
<value>
    <name>Hadoop Configuration Resources</name>
</value>
                            </entry>
                            <entry>
<key>kerberos-credentials-service</key>
<value>
    <identifiesControllerService>org.apache.nifi.kerberos.KerberosCredentialsService</identifiesControllerService>
    <name>kerberos-credentials-service</name>
</value>
                            </entry>
                            <entry>
<key>Kerberos Principal</key>
<value>
    <name>Kerberos Principal</name>
</value>
                            </entry>
                            <entry>
<key>Kerberos Keytab</key>
<value>
    <name>Kerberos Keytab</name>
</value>
                            </entry>
                            <entry>
<key>Kerberos Relogin Period</key>
<value>
    <name>Kerberos Relogin Period</name>
</value>
                            </entry>
                            <entry>
<key>Additional Classpath Resources</key>
<value>
    <name>Additional Classpath Resources</name>
</value>
                            </entry>
                            <entry>
<key>Directory</key>
<value>
    <name>Directory</name>
</value>
                            </entry>
                            <entry>
<key>Conflict Resolution Strategy</key>
<value>
    <name>Conflict Resolution Strategy</name>
</value>
                            </entry>
                            <entry>
<key>Block Size</key>
<value>
    <name>Block Size</name>
</value>
                            </entry>
                            <entry>
<key>IO Buffer Size</key>
<value>
    <name>IO Buffer Size</name>
</value>
                            </entry>
                            <entry>
<key>Replication</key>
<value>
    <name>Replication</name>
</value>
                            </entry>
                            <entry>
<key>Permissions umask</key>
<value>
    <name>Permissions umask</name>
</value>
                            </entry>
                            <entry>
<key>Remote Owner</key>
<value>
    <name>Remote Owner</name>
</value>
                            </entry>
                            <entry>
<key>Remote Group</key>
<value>
    <name>Remote Group</name>
</value>
                            </entry>
                            <entry>
<key>Compression codec</key>
<value>
    <name>Compression codec</name>
</value>
                            </entry>
                        </descriptors>
                        <executionNode>ALL</executionNode>
                        <lossTolerant>false</lossTolerant>
                        <penaltyDuration>30 sec</penaltyDuration>
                        <properties>