<?xml version="1.0" encoding="UTF-8" standalone="yes"?>
<template encoding-version="1.2">
    <description></description>
    <groupId>7c84501d-d10c-407c-b9f3-1d80e38fe36a</groupId>
    <name>DevFlow02.12</name>
    <snippet>
        <connections>
            <id>3b36afaf-b828-3cc0-0000-000000000000</id>
            <parentGroupId>46f95fe5-3024-31d8-0000-000000000000</parentGroupId>
            <backPressureDataSizeThreshold>1 GB</backPressureDataSizeThreshold>
            <backPressureObjectThreshold>10000</backPressureObjectThreshold>
            <destination>
                <groupId>651022f7-836f-3ab0-0000-000000000000</groupId>
                <id>1251f0f1-69b9-382d-0000-000000000000</id>
                <type>INPUT_PORT</type>
            </destination>
            <flowFileExpiration>0 sec</flowFileExpiration>
            <labelIndex>1</labelIndex>
            <name></name>
            <source>
                <groupId>32db03d1-9247-3b5e-0000-000000000000</groupId>
                <id>e495cc90-80c4-3720-0000-000000000000</id>
                <type>OUTPUT_PORT</type>
            </source>
            <zIndex>0</zIndex>
        </connections>
        <connections>
            <id>d672c45f-3fea-318a-0000-000000000000</id>
            <parentGroupId>46f95fe5-3024-31d8-0000-000000000000</parentGroupId>
            <backPressureDataSizeThreshold>1 GB</backPressureDataSizeThreshold>
            <backPressureObjectThreshold>10000</backPressureObjectThreshold>
            <destination>
                <groupId>651022f7-836f-3ab0-0000-000000000000</groupId>
                <id>1251f0f1-69b9-382d-0000-000000000000</id>
                <type>INPUT_PORT</type>
            </destination>
            <flowFileExpiration>0 sec</flowFileExpiration>
            <labelIndex>1</labelIndex>
            <name></name>
            <source>
                <groupId>a26f56f8-9f4d-3084-0000-000000000000</groupId>
                <id>6837de9a-5f44-3c62-0000-000000000000</id>
                <type>OUTPUT_PORT</type>
            </source>
            <zIndex>0</zIndex>
        </connections>
        <controllerServices>
            <id>20c8f381-7305-3ab7-0000-000000000000</id>
            <parentGroupId>46f95fe5-3024-31d8-0000-000000000000</parentGroupId>
            <bundle>
                <artifact>nifi-record-serialization-services-nar</artifact>
                <group>org.apache.nifi</group>
                <version>1.7.0.3.2.0.0-520</version>
            </bundle>
            <comments></comments>
            <descriptors>
                <entry>
                    <key>Schema Write Strategy</key>
                    <value>
                        <name>Schema Write Strategy</name>
                    </value>
                </entry>
                <entry>
                    <key>schema-access-strategy</key>
                    <value>
                        <name>schema-access-strategy</name>
                    </value>
                </entry>
                <entry>
                    <key>schema-registry</key>
                    <value>
                        <identifiesControllerService>org.apache.nifi.schemaregistry.services.SchemaRegistry</identifiesControllerService>
                        <name>schema-registry</name>
                    </value>
                </entry>
                <entry>
                    <key>schema-name</key>
                    <value>
                        <name>schema-name</name>
                    </value>
                </entry>
                <entry>
                    <key>schema-version</key>
                    <value>
                        <name>schema-version</name>
                    </value>
                </entry>
                <entry>
                    <key>schema-branch</key>
                    <value>
                        <name>schema-branch</name>
                    </value>
                </entry>
                <entry>
                    <key>schema-text</key>
                    <value>
                        <name>schema-text</name>
                    </value>
                </entry>
                <entry>
                    <key>compression-format</key>
                    <value>
                        <name>compression-format</name>
                    </value>
                </entry>
            </descriptors>
            <name>AvroRecordSetWriter</name>
            <persistsState>false</persistsState>
            <properties>
                <entry>
                    <key>Schema Write Strategy</key>
                    <value>avro-embedded</value>
                </entry>
                <entry>
                    <key>schema-access-strategy</key>
                    <value>schema-text-property</value>
                </entry>
                <entry>
                    <key>schema-registry</key>
                </entry>
                <entry>
                    <key>schema-name</key>
                    <value>${schema.name}</value>
                </entry>
                <entry>
                    <key>schema-version</key>
                </entry>
                <entry>
                    <key>schema-branch</key>
                </entry>
                <entry>
                    <key>schema-text</key>
                    <value>${avro.schema}</value>
                </entry>
                <entry>
                    <key>compression-format</key>
                    <value>NONE</value>
                </entry>
            </properties>
            <state>ENABLED</state>
            <type>org.apache.nifi.avro.AvroRecordSetWriter</type>
        </controllerServices>
        <controllerServices>
            <id>3b5beeeb-1771-3f6a-0000-000000000000</id>
            <parentGroupId>46f95fe5-3024-31d8-0000-000000000000</parentGroupId>
            <bundle>
                <artifact>nifi-dbcp-service-nar</artifact>
                <group>org.apache.nifi</group>
                <version>1.7.0.3.2.0.0-520</version>
            </bundle>
            <comments></comments>
            <descriptors>
                <entry>
                    <key>Database Connection URL</key>
                    <value>
                        <name>Database Connection URL</name>
                    </value>
                </entry>
                <entry>
                    <key>Database Driver Class Name</key>
                    <value>
                        <name>Database Driver Class Name</name>
                    </value>
                </entry>
                <entry>
                    <key>database-driver-locations</key>
                    <value>
                        <name>database-driver-locations</name>
                    </value>
                </entry>
                <entry>
                    <key>Database User</key>
                    <value>
                        <name>Database User</name>
                    </value>
                </entry>
                <entry>
                    <key>Password</key>
                    <value>
                        <name>Password</name>
                    </value>
                </entry>
                <entry>
                    <key>Max Wait Time</key>
                    <value>
                        <name>Max Wait Time</name>
                    </value>
                </entry>
                <entry>
                    <key>Max Total Connections</key>
                    <value>
                        <name>Max Total Connections</name>
                    </value>
                </entry>
                <entry>
                    <key>Validation-query</key>
                    <value>
                        <name>Validation-query</name>
                    </value>
                </entry>
            </descriptors>
            <name>BPM_ILRNAMSQL12</name>
            <persistsState>false</persistsState>
            <properties>
                <entry>
                    <key>Database Connection URL</key>
                    <value>jdbc:sqlserver://ILRNAMSQL12:1433;databaseName=Planon</value>
                </entry>
                <entry>
                    <key>Database Driver Class Name</key>
                    <value>com.microsoft.sqlserver.jdbc.SQLServerDriver</value>
                </entry>
                <entry>
                    <key>database-driver-locations</key>
                    <value>file://${nifi_lib}/sqljdbc41.jar</value>
                </entry>
                <entry>
                    <key>Database User</key>
                    <value>BPM</value>
                </entry>
                <entry>
                    <key>Password</key>
                </entry>
                <entry>
                    <key>Max Wait Time</key>
                    <value>500 millis</value>
                </entry>
                <entry>
                    <key>Max Total Connections</key>
                    <value>8</value>
                </entry>
                <entry>
                    <key>Validation-query</key>
                </entry>
            </properties>
            <state>ENABLED</state>
            <type>org.apache.nifi.dbcp.DBCPConnectionPool</type>
        </controllerServices>
        <controllerServices>
            <id>48d175bf-fd03-3ab3-0000-000000000000</id>
            <parentGroupId>46f95fe5-3024-31d8-0000-000000000000</parentGroupId>
            <bundle>
                <artifact>nifi-dbcp-service-nar</artifact>
                <group>org.apache.nifi</group>
                <version>1.7.0.3.2.0.0-520</version>
            </bundle>
            <comments></comments>
            <descriptors>
                <entry>
                    <key>AM_FOR_ITEX_illinimisac</key>
                    <value>
                        <identifiesControllerService>org.apache.nifi.dbcp.DBCPService</identifiesControllerService>
                        <name>AM_FOR_ITEX_illinimisac</name>
                    </value>
                </entry>
                <entry>
                    <key>etl_integration_illintrmdev1</key>
                    <value>
                        <identifiesControllerService>org.apache.nifi.dbcp.DBCPService</identifiesControllerService>
                        <name>etl_integration_illintrmdev1</name>
                    </value>
                </entry>
            </descriptors>
            <name>OracleLookup</name>
            <persistsState>false</persistsState>
            <properties>
                <entry>
                    <key>AM_FOR_ITEX_illinimisac</key>
                    <value>878d7807-d1de-3177-0000-000000000000</value>
                </entry>
                <entry>
                    <key>etl_integration_illintrmdev1</key>
                    <value>e42ebc22-4df3-3d0b-0000-000000000000</value>
                </entry>
            </properties>
            <state>ENABLED</state>
            <type>org.apache.nifi.dbcp.DBCPConnectionPoolLookup</type>
        </controllerServices>
        <controllerServices>
            <id>6e55948c-1ad0-3280-0000-000000000000</id>
            <parentGroupId>46f95fe5-3024-31d8-0000-000000000000</parentGroupId>
            <bundle>
                <artifact>nifi-dbcp-service-nar</artifact>
                <group>org.apache.nifi</group>
                <version>1.7.0.3.2.0.0-520</version>
            </bundle>
            <comments></comments>
            <descriptors>
                <entry>
                    <key>Database Connection URL</key>
                    <value>
                        <name>Database Connection URL</name>
                    </value>
                </entry>
                <entry>
                    <key>Database Driver Class Name</key>
                    <value>
                        <name>Database Driver Class Name</name>
                    </value>
                </entry>
                <entry>
                    <key>database-driver-locations</key>
                    <value>
                        <name>database-driver-locations</name>
                    </value>
                </entry>
                <entry>
                    <key>Database User</key>
                    <value>
                        <name>Database User</name>
                    </value>
                </entry>
                <entry>
                    <key>Password</key>
                    <value>
                        <name>Password</name>
                    </value>
                </entry>
                <entry>
                    <key>Max Wait Time</key>
                    <value>
                        <name>Max Wait Time</name>
                    </value>
                </entry>
                <entry>
                    <key>Max Total Connections</key>
                    <value>
                        <name>Max Total Connections</name>
                    </value>
                </entry>
                <entry>
                    <key>Validation-query</key>
                    <value>
                        <name>Validation-query</name>
                    </value>
                </entry>
            </descriptors>
            <name>Inet_Reader_170.30.202.233</name>
            <persistsState>false</persistsState>
            <properties>
                <entry>
                    <key>Database Connection URL</key>
                    <value>jdbc:sqlserver://172.30.202.233:1433;databaseName=INetDB</value>
                </entry>
                <entry>
                    <key>Database Driver Class Name</key>
                    <value>com.microsoft.sqlserver.jdbc.SQLServerDriver</value>
                </entry>
                <entry>
                    <key>database-driver-locations</key>
                    <value>file://${nifi_lib}/sqljdbc41.jar</value>
                </entry>
                <entry>
                    <key>Database User</key>
                    <value>Inet_Reader</value>
                </entry>
                <entry>
                    <key>Password</key>
                </entry>
                <entry>
                    <key>Max Wait Time</key>
                    <value>500 millis</value>
                </entry>
                <entry>
                    <key>Max Total Connections</key>
                    <value>8</value>
                </entry>
                <entry>
                    <key>Validation-query</key>
                </entry>
            </properties>
            <state>ENABLED</state>
            <type>org.apache.nifi.dbcp.DBCPConnectionPool</type>
        </controllerServices>
        <controllerServices>
            <id>81b22eb1-b37a-3320-0000-000000000000</id>
            <parentGroupId>46f95fe5-3024-31d8-0000-000000000000</parentGroupId>
            <bundle>
                <artifact>nifi-dbcp-service-nar</artifact>
                <group>org.apache.nifi</group>
                <version>1.7.0.3.2.0.0-520</version>
            </bundle>
            <comments></comments>
            <descriptors>
                <entry>
                    <key>Database Connection URL</key>
                    <value>
                        <name>Database Connection URL</name>
                    </value>
                </entry>
                <entry>
                    <key>Database Driver Class Name</key>
                    <value>
                        <name>Database Driver Class Name</name>
                    </value>
                </entry>
                <entry>
                    <key>database-driver-locations</key>
                    <value>
                        <name>database-driver-locations</name>
                    </value>
                </entry>
                <entry>
                    <key>Database User</key>
                    <value>
                        <name>Database User</name>
                    </value>
                </entry>
                <entry>
                    <key>Password</key>
                    <value>
                        <name>Password</name>
                    </value>
                </entry>
                <entry>
                    <key>Max Wait Time</key>
                    <value>
                        <name>Max Wait Time</name>
                    </value>
                </entry>
                <entry>
                    <key>Max Total Connections</key>
                    <value>
                        <name>Max Total Connections</name>
                    </value>
                </entry>
                <entry>
                    <key>Validation-query</key>
                    <value>
                        <name>Validation-query</name>
                    </value>
                </entry>
            </descriptors>
            <name>wmt_user_ilrnatelem01</name>
            <persistsState>false</persistsState>
            <properties>
                <entry>
                    <key>Database Connection URL</key>
                    <value>jdbc:sqlserver://ilrnatelem01:1433;databaseName=SCCM_DWH_POWERBI</value>
                </entry>
                <entry>
                    <key>Database Driver Class Name</key>
                    <value>com.microsoft.sqlserver.jdbc.SQLServerDriver</value>
                </entry>
                <entry>
                    <key>database-driver-locations</key>
                    <value>file://${nifi_lib}/sqljdbc42.jar</value>
                </entry>
                <entry>
                    <key>Database User</key>
                    <value>wmt_user</value>
                </entry>
                <entry>
                    <key>Password</key>
                </entry>
                <entry>
                    <key>Max Wait Time</key>
                    <value>500 millis</value>
                </entry>
                <entry>
                    <key>Max Total Connections</key>
                    <value>8</value>
                </entry>
                <entry>
                    <key>Validation-query</key>
                </entry>
            </properties>
            <state>ENABLED</state>
            <type>org.apache.nifi.dbcp.DBCPConnectionPool</type>
        </controllerServices>
        <controllerServices>
            <id>878d7807-d1de-3177-0000-000000000000</id>
            <parentGroupId>46f95fe5-3024-31d8-0000-000000000000</parentGroupId>
            <bundle>
                <artifact>nifi-dbcp-service-nar</artifact>
                <group>org.apache.nifi</group>
                <version>1.7.0.3.2.0.0-520</version>
            </bundle>
            <comments></comments>
            <descriptors>
                <entry>
                    <key>Database Connection URL</key>
                    <value>
                        <name>Database Connection URL</name>
                    </value>
                </entry>
                <entry>
                    <key>Database Driver Class Name</key>
                    <value>
                        <name>Database Driver Class Name</name>
                    </value>
                </entry>
                <entry>
                    <key>database-driver-locations</key>
                    <value>
                        <name>database-driver-locations</name>
                    </value>
                </entry>
                <entry>
                    <key>Database User</key>
                    <value>
                        <name>Database User</name>
                    </value>
                </entry>
                <entry>
                    <key>Password</key>
                    <value>
                        <name>Password</name>
                    </value>
                </entry>
                <entry>
                    <key>Max Wait Time</key>
                    <value>
                        <name>Max Wait Time</name>
                    </value>
                </entry>
                <entry>
                    <key>Max Total Connections</key>
                    <value>
                        <name>Max Total Connections</name>
                    </value>
                </entry>
                <entry>
                    <key>Validation-query</key>
                    <value>
                        <name>Validation-query</name>
                    </value>
                </entry>
            </descriptors>
            <name>AM_FOR_ITEX_illinimisac</name>
            <persistsState>false</persistsState>
            <properties>
                <entry>
                    <key>Database Connection URL</key>
                    <value>jdbc:oracle:thin:@illinimisac:1545:ACPROD</value>
                </entry>
                <entry>
                    <key>Database Driver Class Name</key>
                    <value>oracle.jdbc.driver.OracleDriver</value>
                </entry>
                <entry>
                    <key>database-driver-locations</key>
                    <value>file://${nifi_lib}/ojdbc7-12.1.0.2.jar</value>
                </entry>
                <entry>
                    <key>Database User</key>
                    <value>AM_FOR_ITEX</value>
                </entry>
                <entry>
                    <key>Password</key>
                </entry>
                <entry>
                    <key>Max Wait Time</key>
                    <value>500 millis</value>
                </entry>
                <entry>
                    <key>Max Total Connections</key>
                    <value>8</value>
                </entry>
                <entry>
                    <key>Validation-query</key>
                </entry>
            </properties>
            <state>ENABLED</state>
            <type>org.apache.nifi.dbcp.DBCPConnectionPool</type>
        </controllerServices>
        <controllerServices>
            <id>98a093ec-764f-3aad-0000-000000000000</id>
            <parentGroupId>46f95fe5-3024-31d8-0000-000000000000</parentGroupId>
            <bundle>
                <artifact>nifi-dbcp-service-nar</artifact>
                <group>org.apache.nifi</group>
                <version>1.7.0.3.2.0.0-520</version>
            </bundle>
            <comments></comments>
            <descriptors>
                <entry>
                    <key>AcDataLakeUser_imisbpmsqlinst1</key>
                    <value>
                        <identifiesControllerService>org.apache.nifi.dbcp.DBCPService</identifiesControllerService>
                        <name>AcDataLakeUser_imisbpmsqlinst1</name>
                    </value>
                </entry>
                <entry>
                    <key>AvayaUser_ILRASQL2SRV</key>
                    <value>
                        <identifiesControllerService>org.apache.nifi.dbcp.DBCPService</identifiesControllerService>
                        <name>AvayaUser_ILRASQL2SRV</name>
                    </value>
                </entry>
                <entry>
                    <key>BPM_ILRNAMSQL12</key>
                    <value>
                        <identifiesControllerService>org.apache.nifi.dbcp.DBCPService</identifiesControllerService>
                        <name>BPM_ILRNAMSQL12</name>
                    </value>
                </entry>
                <entry>
                    <key>Disa_user_IMISSQL2012DEV</key>
                    <value>
                        <identifiesControllerService>org.apache.nifi.dbcp.DBCPService</identifiesControllerService>
                        <name>Disa_user_IMISSQL2012DEV</name>
                    </value>
                </entry>
                <entry>
                    <key>Inet_Reader_170.30.202.233</key>
                    <value>
                        <identifiesControllerService>org.apache.nifi.dbcp.DBCPService</identifiesControllerService>
                        <name>Inet_Reader_170.30.202.233</name>
                    </value>
                </entry>
                <entry>
                    <key>Itsmsn_reader_10.67.102.100</key>
                    <value>
                        <identifiesControllerService>org.apache.nifi.dbcp.DBCPService</identifiesControllerService>
                        <name>Itsmsn_reader_10.67.102.100</name>
                    </value>
                </entry>
                <entry>
                    <key>UCread_ILRASQL1SRV</key>
                    <value>
                        <identifiesControllerService>org.apache.nifi.dbcp.DBCPService</identifiesControllerService>
                        <name>UCread_ILRASQL1SRV</name>
                    </value>
                </entry>
                <entry>
                    <key>wmt_user_ilrnatelem01</key>
                    <value>
                        <identifiesControllerService>org.apache.nifi.dbcp.DBCPService</identifiesControllerService>
                        <name>wmt_user_ilrnatelem01</name>
                    </value>
                </entry>
            </descriptors>
            <name>SqlServerLookup</name>
            <persistsState>false</persistsState>
            <properties>
                <entry>
                    <key>AcDataLakeUser_imisbpmsqlinst1</key>
                    <value>fe91b6f5-e852-3f4a-0000-000000000000</value>
                </entry>
                <entry>
                    <key>AvayaUser_ILRASQL2SRV</key>
                    <value>fb0f655a-77b1-3356-0000-000000000000</value>
                </entry>
                <entry>
                    <key>BPM_ILRNAMSQL12</key>
                    <value>3b5beeeb-1771-3f6a-0000-000000000000</value>
                </entry>
                <entry>
                    <key>Disa_user_IMISSQL2012DEV</key>
                    <value>b000d2d3-85d0-37db-0000-000000000000</value>
                </entry>
                <entry>
                    <key>Inet_Reader_170.30.202.233</key>
                    <value>6e55948c-1ad0-3280-0000-000000000000</value>
                </entry>
                <entry>
                    <key>Itsmsn_reader_10.67.102.100</key>
                    <value>e910c1d0-1b26-3e3c-0000-000000000000</value>
                </entry>
                <entry>
                    <key>UCread_ILRASQL1SRV</key>
                    <value>ae9004a7-6f7d-3e41-0000-000000000000</value>
                </entry>
                <entry>
                    <key>wmt_user_ilrnatelem01</key>
                    <value>81b22eb1-b37a-3320-0000-000000000000</value>
                </entry>
            </properties>
            <state>ENABLED</state>
            <type>org.apache.nifi.dbcp.DBCPConnectionPoolLookup</type>
        </controllerServices>
        <controllerServices>
            <id>a33a343d-d6b6-3054-0000-000000000000</id>
            <parentGroupId>46f95fe5-3024-31d8-0000-000000000000</parentGroupId>
            <bundle>
                <artifact>nifi-record-serialization-services-nar</artifact>
                <group>org.apache.nifi</group>
                <version>1.7.0.3.2.0.0-520</version>
            </bundle>
            <comments></comments>
            <descriptors>
                <entry>
                    <key>schema-access-strategy</key>
                    <value>
                        <name>schema-access-strategy</name>
                    </value>
                </entry>
                <entry>
                    <key>schema-registry</key>
                    <value>
                        <identifiesControllerService>org.apache.nifi.schemaregistry.services.SchemaRegistry</identifiesControllerService>
                        <name>schema-registry</name>
                    </value>
                </entry>
                <entry>
                    <key>schema-name</key>
                    <value>
                        <name>schema-name</name>
                    </value>
                </entry>
                <entry>
                    <key>schema-version</key>
                    <value>
                        <name>schema-version</name>
                    </value>
                </entry>
                <entry>
                    <key>schema-branch</key>
                    <value>
                        <name>schema-branch</name>
                    </value>
                </entry>
                <entry>
                    <key>schema-text</key>
                    <value>
                        <name>schema-text</name>
                    </value>
                </entry>
            </descriptors>
            <name>AvroReader</name>
            <persistsState>false</persistsState>
            <properties>
                <entry>
                    <key>schema-access-strategy</key>
                    <value>embedded-avro-schema</value>
                </entry>
                <entry>
                    <key>schema-registry</key>
                </entry>
                <entry>
                    <key>schema-name</key>
                    <value>${schema.name}</value>
                </entry>
                <entry>
                    <key>schema-version</key>
                </entry>
                <entry>
                    <key>schema-branch</key>
                </entry>
                <entry>
                    <key>schema-text</key>
                    <value>${avro.schema}</value>
                </entry>
            </properties>
            <state>ENABLED</state>
            <type>org.apache.nifi.avro.AvroReader</type>
        </controllerServices>
        <controllerServices>
            <id>ab0dd268-2a22-3336-0000-000000000000</id>
            <parentGroupId>46f95fe5-3024-31d8-0000-000000000000</parentGroupId>
            <bundle>
                <artifact>nifi-kerberos-credentials-service-nar</artifact>
                <group>org.apache.nifi</group>
                <version>1.7.0.3.2.0.0-520</version>
            </bundle>
            <comments></comments>
            <descriptors>
                <entry>
                    <key>Kerberos Keytab</key>
                    <value>